python/psse/normal_case39.raw
0,   100.00, 33, 1, 1, 60.00     / PSS(R)E University-33.4    FRI, JUN 13 2014  13:09
CONVERTED DATA FROM A MATPOWER CASE
MATPOWER CASE NAME: CASE39A
     1,'B0001       ', 345.0000,1,   2,   1,   1,1.04218,   3.6434,1.10000,0.90000,1.10000,0.90000
     2,'B0002       ', 345.0000,1,   2,   1,   1,1.04467,   9.2503,1.10000,0.90000,1.10000,0.90000
     3,'B0003       ', 345.0000,1,   2,   1,   1,1.02583,   6.9210,1.10000,0.90000,1.10000,0.90000
     4,'B0004       ', 345.0000,1,   1,   1,   1,0.99950,   6.0088,1.10000,0.90000,1.10000,0.90000
     5,'B0005       ', 345.0000,1,   1,   1,   1,1.00120,   6.8410,1.10000,0.90000,1.10000,0.90000
     6,'B0006       ', 345.0000,1,   1,   1,   1,1.00371,   7.5444,1.10000,0.90000,1.10000,0.90000
     7,'B0007       ', 345.0000,1,   1,   1,   1,0.99273,   5.1230,1.10000,0.90000,1.10000,0.90000
     8,'B0008       ', 345.0000,1,   1,   1,   1,0.99172,   4.5129,1.10000,0.90000,1.10000,0.90000
     9,'B0009       ', 345.0000,1,   1,   1,   1,1.02495,   1.9000,1.10000,0.90000,1.10000,0.90000
    10,'B0010       ', 345.0000,1,   1,   1,   1,1.01362,  10.4031,1.10000,0.90000,1.10000,0.90000
    11,'B0011       ', 345.0000,1,   1,   1,   1,1.00894,   9.4352,1.10000,0.90000,1.10000,0.90000
    12,'B0012       ', 345.0000,1,   1,   1,   1,0.99632,   9.5349,1.10000,0.90000,1.10000,0.90000
    13,'B0013       ', 345.0000,1,   1,   1,   1,1.01054,   9.7404,1.10000,0.90000,1.10000,0.90000
    14,'B0014       ', 345.0000,1,   1,   1,   1,1.00742,   8.2126,1.10000,0.90000,1.10000,0.90000
    15,'B0015       ', 345.0000,1,   3,   1,   1,1.01043,   8.6181,1.10000,0.90000,1.10000,0.90000
    16,'B0016       ', 345.0000,1,   3,   1,   1,1.02687,  10.3896,1.10000,0.90000,1.10000,0.90000
    17,'B0017       ', 345.0000,1,   2,   1,   1,1.02875,   8.9107,1.10000,0.90000,1.10000,0.90000
    18,'B0018       ', 345.0000,1,   2,   1,   1,1.02615,   7.7189,1.10000,0.90000,1.10000,0.90000
    19,'B0019       ', 345.0000,1,   3,   1,   1,1.04640,  16.0144,1.10000,0.90000,1.10000,0.90000
    20,'B0020       ', 345.0000,1,   3,   1,   1,0.98755,  15.1624,1.10000,0.90000,1.10000,0.90000
    21,'B0021       ', 345.0000,1,   3,   1,   1,1.02705,  13.1394,1.10000,0.90000,1.10000,0.90000
    22,'B0022       ', 345.0000,1,   3,   1,   1,1.04629,  17.9521,1.10000,0.90000,1.10000,0.90000
    23,'B0023       ', 345.0000,1,   3,   1,   1,1.04110,  17.7582,1.10000,0.90000,1.10000,0.90000
    24,'B0024       ', 345.0000,1,   3,   1,   1,1.03232,  10.6049,1.10000,0.90000,1.10000,0.90000
    25,'B0025       ', 345.0000,1,   2,   1,   1,1.05592,  10.8887,1.10000,0.90000,1.10000,0.90000
    26,'B0026       ', 345.0000,1,   2,   1,   1,1.04849,  10.4437,1.10000,0.90000,1.10000,0.90000
    27,'B0027       ', 345.0000,1,   2,   1,   1,1.03354,   8.5756,1.10000,0.90000,1.10000,0.90000
    28,'B0028       ', 345.0000,1,   3,   1,   1,1.04667,  14.3369,1.10000,0.90000,1.10000,0.90000
    29,'B0029       ', 345.0000,1,   3,   1,   1,1.04683,  17.2304,1.10000,0.90000,1.10000,0.90000
    30,'B0030       ', 345.0000,2,   2,   1,   1,1.04659,  11.8918,1.10000,0.90000,1.10000,0.90000
    31,'B0031       ', 345.0000,2,   1,   1,   1,0.98168,  15.8801,1.10000,0.90000,1.10000,0.90000
    32,'B0032       ', 345.0000,2,   1,   1,   1,0.98266,  18.9133,1.10000,0.90000,1.10000,0.90000
    33,'B0033       ', 345.0000,2,   3,   1,   1,0.99617,  21.4407,1.10000,0.90000,1.10000,0.90000
    34,'B0034       ', 345.0000,2,   3,   1,   1,1.00873,  20.5716,1.10000,0.90000,1.10000,0.90000
    35,'B0035       ', 345.0000,2,   3,   1,   1,1.04817,  23.2693,1.10000,0.90000,1.10000,0.90000
    36,'B0036       ', 345.0000,2,   3,   1,   1,1.06251,  26.0950,1.10000,0.90000,1.10000,0.90000
    37,'B0037       ', 345.0000,2,   2,   1,   1,1.02710,  17.7608,1.10000,0.90000,1.10000,0.90000
    38,'B0038       ', 345.0000,2,   3,   1,   1,1.02498,  24.5789,1.10000,0.90000,1.10000,0.90000
    39,'B0039       ', 345.0000,3,   1,   1,   1,1.02941,   0.2450,1.10000,0.90000,1.10000,0.90000
0 / END OF BUS DATA, BEGIN LOAD DATA
     3,'1 ',1,   2,   1,     0.000,     0.000,     0.000,     0.000,   305.296,    -2.275,   1,1,0
     3,'2 ',1,   2,   1,     0.001,     0.000,     0.000,     0.000,     0.000,     0.000,   2,1,0
     4,'1 ',1,   1,   1,     0.000,     0.000,     0.000,     0.000,   499.645,  -183.869,   1,1,0
     4,'2 ',1,   1,   1,     0.001,     0.000,     0.000,     0.000,     0.000,     0.000,   2,1,0
     7,'1 ',1,   1,   1,     0.000,     0.000,     0.000,     0.000,   236.953,   -85.133,   1,1,0
     7,'2 ',1,   1,   1,     0.000,     0.000,     0.000,     0.000,     0.000,     0.000,   2,1,0
     8,'1 ',1,   1,   1,     0.000,     0.000,     0.000,     0.000,   477.110,  -178.738,   1,1,0
     8,'2 ',1,   1,   1,     0.001,     0.000,     0.000,     0.000,     0.000,     0.000,   2,1,0
    12,'1 ',1,   1,   1,     0.000,     0.000,     0.000,     0.000,     7.545,   -88.529,   1,1,0
    12,'2 ',1,   1,   1,     0.001,     0.000,     0.000,     0.000,     0.000,     0.000,   2,1,0
    15,'1 ',1,   3,   1,     0.000,     0.000,     0.000,     0.000,   312.697,  -149.508,   1,1,0
    15,'2 ',1,   3,   1,     0.001,     0.000,     0.000,     0.000,     0.000,     0.000,   2,1,0
    16,'1 ',1,   3,   1,     0.000,     0.000,     0.000,     0.000,   311.209,   -30.553,   1,1,0
    16,'2 ',1,   3,   1,     0.001,     0.000,     0.000,     0.000,     0.000,     0.000,   2,1,0
    18,'1 ',1,   2,   1,     0.000,     0.000,     0.000,     0.000,   149.679,   -28.420,   1,1,0
    18,'2 ',1,   2,   1,     0.001,     0.000,     0.000,     0.000,     0.000,     0.000,   2,1,0
    20,'1 ',1,   3,   1,     0.000,     0.000,     0.000,     0.000,   642.164,  -105.323,   1,1,0
    20,'2 ',1,   3,   1,     0.001,     0.000,     0.000,     0.000,     0.000,     0.000,   2,1,0
    21,'1 ',1,   3,   1,     0.000,     0.000,     0.000,     0.000,   259.083,  -108.739,   1,1,0
    21,'2 ',1,   3,   1,     0.001,     0.000,     0.000,     0.000,     0.000,     0.000,   2,1,0
    23,'1 ',1,   3,   1,     0.000,     0.000,     0.000,     0.000,   227.792,   -77.863,   1,1,0
    23,'2 ',1,   3,   1,     0.001,     0.000,     0.000,     0.000,     0.000,     0.000,   2,1,0
    24,'1 ',1,   3,   1,     0.000,     0.000,     0.000,     0.000,   288.829,    86.293,   1,1,0
    24,'2 ',1,   3,   1,     0.001,     0.000,     0.000,     0.000,     0.000,     0.000,   2,1,0
    25,'1 ',1,   2,   1,     0.000,     0.000,     0.000,     0.000,   200.567,   -42.262,   1,1,0
    25,'2 ',1,   2,   1,     0.001,     0.000,     0.000,     0.000,     0.000,     0.000,   2,1,0
    26,'1 ',1,   2,   1,     0.000,     0.000,     0.000,     0.000,   126.128,   -15.426,   1,1,0
    26,'2 ',1,   2,   1,     0.001,     0.000,     0.000,     0.000,     0.000,     0.000,   2,1,0
    27,'1 ',1,   2,   1,     0.000,     0.000,     0.000,     0.000,   262.405,   -70.504,   1,1,0
    27,'2 ',1,   2,   1,     0.001,     0.000,     0.000,     0.000,     0.000,     0.000,   2,1,0
    28,'1 ',1,   3,   1,     0.000,     0.000,     0.000,     0.000,   187.480,   -25.119,   1,1,0
    28,'2 ',1,   1,   1,     0.001,     0.000,     0.000,     0.000,     0.000,     0.000,   2,1,0
    29,'1 ',1,   3,   1,     0.000,     0.000,     0.000,     0.000,   257.913,   -24.472,   1,1,0
    29,'2 ',1,   3,   1,     0.001,     0.000,     0.000,     0.000,     0.000,     0.000,   2,1,0
    31,'1 ',1,   1,   1,     0.000,     0.000,     0.000,     0.000,     9.540,    -4.770,   1,1,0
    31,'2 ',1,   1,   1,     0.001,     0.000,     0.000,     0.000,     0.000,     0.000,   2,1,0
    39,'1 ',1,   1,   1,     0.000,     0.000,     0.000,     0.000,  1040.626,  -235.649,   1,1,0
    39,'2 ',1,   1,   1,     0.001,     0.000,     0.000,     0.000,     0.000,     0.000,   2,1,0
0 / END OF LOAD DATA, BEGIN FIXED SHUNT DATA
0 / END OF FIXED SHUNT DATA, BEGIN GENERATOR DATA
    30,'1 ',   271.609,   164.684,   400.000,   140.000,1.04750,     0,   100.000, 0.00000E+0, 3.10000E-2, 0.00000E+0, 0.00000E+0,1.00000,1,  100.0,  1040.000,     0.000,  30,1.0000
    31,'1 ',   544.186,   215.825,   300.000,  -100.000,0.98200,     0,   100.000, 0.00000E+0, 6.97000E-2, 0.00000E+0, 0.00000E+0,1.00000,1,  100.0,   646.000,     0.000,  31,1.0000
    32,'1 ',   688.787,   224.958,   300.000,   150.000,0.98310,     0,   100.000, 0.00000E+0, 5.31000E-2, 0.00000E+0, 0.00000E+0,1.00000,1,  100.0,   725.000,     0.000,  32,1.0000
    33,'1 ',   655.000,   126.291,   250.000,     0.000,0.99720,     0,   100.000, 0.00000E+0, 4.36000E-2, 0.00000E+0, 0.00000E+0,1.00000,1,  100.0,   652.000,     0.000,  33,1.0000
    34,'1 ',   525.357,   166.199,   167.000,     0.000,1.01230,     0,   100.000, 0.00000E+0, 1.32000E-1, 0.00000E+0, 0.00000E+0,1.00000,1,  100.0,   508.000,     0.000,  34,1.0000
    35,'1 ',   693.371,   233.071,   300.000,  -100.000,1.04930,     0,   100.000, 0.00000E+0, 5.00000E-2, 0.00000E+0, 0.00000E+0,1.00000,1,  100.0,   687.000,     0.000,  35,1.0000
    36,'1 ',   591.781,   115.720,   240.000,     0.000,1.06350,     0,   100.000, 0.00000E+0, 4.90000E-2, 0.00000E+0, 0.00000E+0,1.00000,1,  100.0,   580.000,     0.000,  36,1.0000
    37,'1 ',   545.834,     5.088,   250.000,     0.000,1.02780,     0,   100.000, 0.00000E+0, 5.70000E-2, 0.00000E+0, 0.00000E+0,1.00000,1,  100.0,   564.000,     0.000,  37,1.0000
    38,'1 ',   860.079,    35.158,   300.000,  -150.000,1.02650,     0,   100.000, 0.00000E+0, 5.70000E-2, 0.00000E+0, 0.00000E+0,1.00000,1,  100.0,   865.000,     0.000,  38,1.0000
    39,'1 ',   727.073,   137.610,   300.000,  -100.000,1.03000,     0,   100.000, 0.00000E+0, 6.00000E-3, 0.00000E+0, 0.00000E+0,1.00000,1,  100.0,  1100.000,     0.000,  39,1.0000
0 / END OF GENERATOR DATA, BEGIN BRANCH DATA
     1,     2,'1 ', 3.50000E-3, 4.11000E-2,   0.69870,  600.00,  600.00,  600.00,  0.00000,  0.00000,  0.00000,  0.00000,1,1,   0.00,   1,1.0000
     1,    39,'1 ', 1.00000E-3, 2.50000E-2,   0.75000, 1000.00, 1000.00, 1000.00,  0.00000,  0.00000,  0.00000,  0.00000,1,1,   0.00,   1,1.0000
     2,     3,'1 ', 1.30000E-3, 1.51000E-2,   0.25720,  500.00,  500.00,  500.00,  0.00000,  0.00000,  0.00000,  0.00000,1,1,   0.00,   2,1.0000
     2,    25,'1 ', 7.00000E-3, 8.60000E-3,   0.14600,  500.00,  500.00,  500.00,  0.00000,  0.00000,  0.00000,  0.00000,1,1,   0.00,   2,1.0000
     3,     4,'1 ', 1.30000E-3, 2.13000E-2,   0.22140,  500.00,  500.00,  500.00,  0.00000,  0.00000,  0.00000,  0.00000,1,1,   0.00,   3,1.0000
     3,    18,'1 ', 1.10000E-3, 1.33000E-2,   0.21380,  500.00,  500.00,  500.00,  0.00000,  0.00000,  0.00000,  0.00000,1,1,   0.00,   3,1.0000
     4,     5,'1 ', 8.00000E-4, 1.28000E-2,   0.13420,  600.00,  600.00,  600.00,  0.00000,  0.00000,  0.00000,  0.00000,1,1,   0.00,   4,1.0000
     4,    14,'1 ', 8.00000E-4, 1.29000E-2,   0.13820,  500.00,  500.00,  500.00,  0.00000,  0.00000,  0.00000,  0.00000,1,1,   0.00,   4,1.0000
     5,     6,'1 ', 2.00000E-4, 2.60000E-3,   0.04340, 1200.00, 1200.00, 1200.00,  0.00000,  0.00000,  0.00000,  0.00000,1,1,   0.00,   5,1.0000
     5,     8,'1 ', 8.00000E-4, 1.12000E-2,   0.14760,  900.00,  900.00,  900.00,  0.00000,  0.00000,  0.00000,  0.00000,1,1,   0.00,   5,1.0000
     6,     7,'1 ', 6.00000E-4, 9.20000E-3,   0.11300,  900.00,  900.00,  900.00,  0.00000,  0.00000,  0.00000,  0.00000,1,1,   0.00,   6,1.0000
     6,    11,'1 ', 7.00000E-4, 8.20000E-3,   0.13890,  480.00,  480.00,  480.00,  0.00000,  0.00000,  0.00000,  0.00000,1,1,   0.00,   6,1.0000
     7,     8,'1 ', 4.00000E-4, 4.60000E-3,   0.07800,  900.00,  900.00,  900.00,  0.00000,  0.00000,  0.00000,  0.00000,1,1,   0.00,   7,1.0000
     8,     9,'1 ', 2.30000E-3, 3.63000E-2,   0.38040,  900.00,  900.00,  900.00,  0.00000,  0.00000,  0.00000,  0.00000,1,1,   0.00,   8,1.0000
     9,    39,'1 ', 1.00000E-3, 2.50000E-2,   1.20000,  900.00,  900.00,  900.00,  0.00000,  0.00000,  0.00000,  0.00000,1,1,   0.00,   9,1.0000
    10,    11,'1 ', 4.00000E-4, 4.30000E-3,   0.07290,  600.00,  600.00,  600.00,  0.00000,  0.00000,  0.00000,  0.00000,1,1,   0.00,  10,1.0000
    10,    13,'1 ', 4.00000E-4, 4.30000E-3,   0.07290,  600.00,  600.00,  600.00,  0.00000,  0.00000,  0.00000,  0.00000,1,1,   0.00,  10,1.0000
    13,    14,'1 ', 9.00000E-4, 1.01000E-2,   0.17230,  600.00,  600.00,  600.00,  0.00000,  0.00000,  0.00000,  0.00000,1,1,   0.00,  13,1.0000
    14,    15,'1 ', 1.80000E-3, 2.17000E-2,   0.36600,  600.00,  600.00,  600.00,  0.00000,  0.00000,  0.00000,  0.00000,1,1,   0.00,  14,1.0000
    15,    16,'1 ', 9.00000E-4, 9.40000E-3,   0.17100,  600.00,  600.00,  600.00,  0.00000,  0.00000,  0.00000,  0.00000,1,1,   0.00,  15,1.0000
    16,    17,'1 ', 7.00000E-4, 8.90000E-3,   0.13420,  600.00,  600.00,  600.00,  0.00000,  0.00000,  0.00000,  0.00000,1,1,   0.00,  16,1.0000
    16,    19,'1 ', 1.60000E-3, 1.95000E-2,   0.30400,  600.00,  600.00, 2500.00,  0.00000,  0.00000,  0.00000,  0.00000,1,1,   0.00,  16,1.0000
    16,    21,'1 ', 8.00000E-4, 1.35000E-2,   0.25480,  600.00,  600.00,  600.00,  0.00000,  0.00000,  0.00000,  0.00000,1,1,   0.00,  16,1.0000
    16,    24,'1 ', 3.00000E-4, 5.90000E-3,   0.06800,  600.00,  600.00,  600.00,  0.00000,  0.00000,  0.00000,  0.00000,1,1,   0.00,  16,1.0000
    17,    18,'1 ', 7.00000E-4, 8.20000E-3,   0.13190,  600.00,  600.00,  600.00,  0.00000,  0.00000,  0.00000,  0.00000,1,1,   0.00,  17,1.0000
    17,    27,'1 ', 1.30000E-3, 1.73000E-2,   0.32160,  600.00,  600.00,  600.00,  0.00000,  0.00000,  0.00000,  0.00000,1,1,   0.00,  17,1.0000
    21,    22,'1 ', 8.00000E-4, 1.40000E-2,   0.25650,  900.00,  900.00,  900.00,  0.00000,  0.00000,  0.00000,  0.00000,1,1,   0.00,  39,1.0000
    22,    23,'1 ', 6.00000E-4, 9.60000E-3,   0.18460,  600.00,  600.00,  600.00,  0.00000,  0.00000,  0.00000,  0.00000,1,1,   0.00,  39,1.0000
    23,    24,'1 ', 2.20000E-3, 3.50000E-2,   0.36100,  600.00,  600.00,  600.00,  0.00000,  0.00000,  0.00000,  0.00000,1,1,   0.00,  39,1.0000
    25,    26,'1 ', 3.20000E-3, 3.23000E-2,   0.51300,  600.00,  600.00,  600.00,  0.00000,  0.00000,  0.00000,  0.00000,1,1,   0.00,  39,1.0000
    26,    27,'1 ', 1.40000E-3, 1.47000E-2,   0.23960,  600.00,  600.00,  600.00,  0.00000,  0.00000,  0.00000,  0.00000,1,1,   0.00,  39,1.0000
    26,    28,'1 ', 4.30000E-3, 4.74000E-2,   0.78020,  600.00,  600.00,  600.00,  0.00000,  0.00000,  0.00000,  0.00000,1,1,   0.00,  39,1.0000
    26,    29,'1 ', 5.70000E-3, 6.25000E-2,   1.02900,  600.00,  600.00,  600.00,  0.00000,  0.00000,  0.00000,  0.00000,1,1,   0.00,  39,1.0000
    28,    29,'1 ', 1.40000E-3, 1.51000E-2,   0.24900,  600.00,  600.00,  600.00,  0.00000,  0.00000,  0.00000,  0.00000,1,1,   0.00,  39,1.0000
0 / END OF BRANCH DATA, BEGIN TRANSFORMER DATA
     2,    30,     0,'1 ',1,1,1, 0.00000E+0, 0.00000E+0,2,'            ',1,   2,1.0000,   0,1.0000,   0,1.0000,   0,1.0000,'            '
 0.00000E+0, 1.81000E-2,   100.00
1.02500,   0.000,   0.000,   900.00,   900.00,     0.00, 0,      0, 1.10000, 0.90000, 1.10000, 0.90000,  33, 0, 0.00000, 0.00000,  0.000
1.00000,   0.000
     6,    31,     0,'1 ',1,1,1, 0.00000E+0, 0.00000E+0,2,'            ',1,   6,1.0000,   0,1.0000,   0,1.0000,   0,1.0000,'            '
 0.00000E+0, 2.50000E-2,   100.00
1.07000,   0.000,   0.000,  1800.00,  1800.00,     0.00, 0,      0, 1.10000, 0.90000, 1.10000, 0.90000,  33, 0, 0.00000, 0.00000,  0.000
1.00000,   0.000
    10,    32,     0,'1 ',1,1,1, 0.00000E+0, 0.00000E+0,2,'            ',1,  10,1.0000,   0,1.0000,   0,1.0000,   0,1.0000,'            '
 0.00000E+0, 2.00000E-2,   100.00
1.07000,   0.000,   0.000,   900.00,   900.00,     0.00, 0,      0, 1.10000, 0.90000, 1.10000, 0.90000,  33, 0, 0.00000, 0.00000,  0.000
1.00000,   0.000
    12,    11,     0,'1 ',1,1,1, 0.00000E+0, 0.00000E+0,2,'            ',1,  39,1.0000,   0,1.0000,   0,1.0000,   0,1.0000,'            '
 1.60000E-3, 4.35000E-2,   100.00
1.00600,   0.000,   0.000,   500.00,   500.00,     0.00, 0,      0, 1.10000, 0.90000, 1.10000, 0.90000,  33, 0, 0.00000, 0.00000,  0.000
1.00000,   0.000
    12,    13,     0,'1 ',1,1,1, 0.00000E+0, 0.00000E+0,2,'            ',1,  39,1.0000,   0,1.0000,   0,1.0000,   0,1.0000,'            '
 1.60000E-3, 4.35000E-2,   100.00
1.00600,   0.000,   0.000,   500.00,   500.00,     0.00, 0,      0, 1.10000, 0.90000, 1.10000, 0.90000,  33, 0, 0.00000, 0.00000,  0.000
1.00000,   0.000
    19,    20,     0,'1 ',1,1,1, 0.00000E+0, 0.00000E+0,2,'            ',1,  39,1.0000,   0,1.0000,   0,1.0000,   0,1.0000,'            '
 7.00000E-4, 1.38000E-2,   100.00
1.06000,   0.000,   0.000,   900.00,   900.00,     0.00, 0,      0, 1.10000, 0.90000, 1.10000, 0.90000,  33, 0, 0.00000, 0.00000,  0.000
1.00000,   0.000
    19,    33,     0,'1 ',1,1,1, 0.00000E+0, 0.00000E+0,2,'            ',1,  39,1.0000,   0,1.0000,   0,1.0000,   0,1.0000,'            '
 7.00000E-4, 1.42000E-2,   100.00
1.07000,   0.000,   0.000,   900.00,   900.00,     0.00, 0,      0, 1.10000, 0.90000, 1.10000, 0.90000,  33, 0, 0.00000, 0.00000,  0.000
1.00000,   0.000
    20,    34,     0,'1 ',1,1,1, 0.00000E+0, 0.00000E+0,2,'            ',1,  39,1.0000,   0,1.0000,   0,1.0000,   0,1.0000,'            '
 9.00000E-4, 1.80000E-2,   100.00
1.00900,   0.000,   0.000,   900.00,   900.00,     0.00, 0,      0, 1.10000, 0.90000, 1.10000, 0.90000,  33, 0, 0.00000, 0.00000,  0.000
1.00000,   0.000
    22,    35,     0,'1 ',1,1,1, 0.00000E+0, 0.00000E+0,2,'            ',1,  39,1.0000,   0,1.0000,   0,1.0000,   0,1.0000,'            '
 0.00000E+0, 1.43000E-2,   100.00
1.02500,   0.000,   0.000,   900.00,   900.00,     0.00, 0,      0, 1.10000, 0.90000, 1.10000, 0.90000,  33, 0, 0.00000, 0.00000,  0.000
1.00000,   0.000
    23,    36,     0,'1 ',1,1,1, 0.00000E+0, 0.00000E+0,2,'            ',1,  39,1.0000,   0,1.0000,   0,1.0000,   0,1.0000,'            '
 5.00000E-4, 2.72000E-2,   100.00
1.00000,   0.000,   0.000,   900.00,   900.00,     0.00, 0,      0, 1.10000, 0.90000, 1.10000, 0.90000,  33, 0, 0.00000, 0.00000,  0.000
1.00000,   0.000
    25,    37,     0,'1 ',1,1,1, 0.00000E+0, 0.00000E+0,2,'            ',1,  39,1.0000,   0,1.0000,   0,1.0000,   0,1.0000,'            '
 6.00000E-4, 2.32000E-2,   100.00
1.02500,   0.000,   0.000,   900.00,   900.00,     0.00, 0,      0, 1.10000, 0.90000, 1.10000, 0.90000,  33, 0, 0.00000, 0.00000,  0.000
1.00000,   0.000
    29,    38,     0,'1 ',1,1,1, 0.00000E+0, 0.00000E+0,2,'            ',1,  39,1.0000,   0,1.0000,   0,1.0000,   0,1.0000,'            '
 8.00000E-4, 1.56000E-2,   100.00
1.02500,   0.000,   0.000,  1200.00,  1200.00,     0.00, 0,      0, 1.10000, 0.90000, 1.10000, 0.90000,  33, 0, 0.00000, 0.00000,  0.000
1.00000,   0.000
0 / END OF TRANSFORMER DATA, BEGIN AREA DATA
   1,     0,     0.000,    10.000,'AREA 1      '
   2,     0,     0.000,    10.000,'AREA 2      '
   3,     0,     0.000,    10.000,'AREA 3      '
0 / END OF AREA DATA, BEGIN TWO-TERMINAL DC DATA
0 / END OF TWO-TERMINAL DC DATA, BEGIN VSC DC LINE DATA
0 / END OF VSC DC LINE DATA, BEGIN IMPEDANCE CORRECTION DATA
0 / END OF IMPEDANCE CORRECTION DATA, BEGIN MULTI-TERMINAL DC DATA
0 / END OF MULTI-TERMINAL DC DATA, BEGIN MULTI-SECTION LINE DATA
0 / END OF MULTI-SECTION LINE DATA, BEGIN ZONE DATA
0 / END OF ZONE DATA, BEGIN INTER-AREA TRANSFER DATA
0 / END OF INTER-AREA TRANSFER DATA, BEGIN OWNER DATA
0 / END OF OWNER DATA, BEGIN FACTS DEVICE DATA
0 / END OF FACTS DEVICE DATA, BEGIN SWITCHED SHUNT DATA
0 / END OF SWITCHED SHUNT DATA, BEGIN GNE DATA
0 / END OF GNE DATA, BEGIN INDUCTION MACHINE DATA
0 / END OF INDUCTION MACHINE DATA
Q
